[General]
network = HelloWorld
sim-time-limit = 6s

# Interface graphique
cmdenv-express-mode = false

# Logs détaillés
**.debug = true