
[General]
network = MeshNetwork
sim-time-limit = 10s

cmdenv-express-mode = false
**.debug = true

*.node1.nodeType = "gateway"